* Simple AC capacitor test
V1 1 0 1 AC 1
C1 1 0 1e-6
.OP
.AC LIN 10 1 10000
